/*--------------------------------*- C++ -*----------------------------------*\
| =========                 |                                                 |
| \\      /  F ield         | OpenFOAM: The Open Source CFD Toolbox           |
|  \\    /   O peration     | Version:  4.x                                   |
|   \\  /    A nd           | Web:      www.OpenFOAM.org                      |
|    \\/     M anipulation  |                                                 |
\*---------------------------------------------------------------------------*/
FoamFile
{
    version     2.0;
    format      ascii;
    class       dictionary;
    object      blockMeshDict;
}
// * * * * * * * * * * * * * * * * * * * * * * * * * * * * * * * * * * * * * //

scale 1;

xmin 0;
xmax 10;
ymin -0.25;
ymax 0.25;
zmin -0.01;
zmax 0.01;

vertices
(
    ($xmin  $ymin  $zmin)
    ($xmax  $ymin  $zmin)
    ($xmax  $ymax  $zmin)
    ($xmin  $ymax  $zmin)
    ($xmin  $ymin  $zmax)
    ($xmax  $ymin  $zmax)
    ($xmax  $ymax  $zmax)
    ($xmin  $ymax  $zmax)
);

xcells  240;
ycells  120;
zcells  1;

zedgeMax    10;
zedgeMin    0.1;

xedgeMax    10;
xedgeMin    0.1;

blocks
(
    hex (0 1 2 3 4 5 6 7) ($xcells $ycells $zcells) simpleGrading
    (
    // x-direction grading
    (
        (0.2 0.25 10)
        (0.6 0.50 1)
        (0.2 0.25 0.1)
    )

    // y-direction grading
    (
        (0.2 0.25 10)
        (0.6 0.50 1)
        (0.2 0.25 0.1)
    )

    // z-direction grading
    1
    )
);

edges
(
);

boundary
(
    inlet
    {
        type patch;
        faces
        (
            (0 4 7 3)
        );
    }
    outlet
    {
        type patch;
        faces
        (
            (2 6 5 1)
        );
    }
    walls
    {
        type wall;
        faces
        (
            (3 7 6 2)
            (1 5 4 0)
        );
    }
    back
    {
        type empty;
        faces
        (
            (0 3 2 1)
        );
    }
    front
    {
        type empty;
        faces
        (
            (4 5 6 7)
        );
    }
);

mergePatchPairs
(
);

// ************************************************************************* //
