/*--------------------------------*- C++ -*----------------------------------*\
| =========                 |                                                 |
| \\      /  F ield         | OpenFOAM: The Open Source CFD Toolbox           |
|  \\    /   O peration     | Version:  v2206                                 |
|   \\  /    A nd           | Website:  www.openfoam.com                      |
|    \\/     M anipulation  |                                                 |
\*---------------------------------------------------------------------------*/
FoamFile
{
    version     2.0;
    format      ascii;
    class       volScalarField;
    object      p;
}
// * * * * * * * * * * * * * * * * * * * * * * * * * * * * * * * * * * * * * //

dimensions      [1 -1 -2 0 0 0 0];

#include "include/initialConditions"

internalField   $flowPressure;

boundaryField
{
    #includeEtc "caseDicts/setConstraintTypes"

    "wall.*"
    {
        type            zeroGradient;
        value           $internalField;
    }

    inlet
    {
        type            zeroGradient;
        value           $internalField;
    }

    outlet
    {
        type            fixedValue;
        value           $internalField;
    }
}

// ************************************************************************* //
