/*--------------------------------*- C++ -*----------------------------------*\
| =========                 |                                                 |
| \\      /  F ield         | OpenFOAM: The Open Source CFD Toolbox           |
|  \\    /   O peration     | Version:  v2206                                 |
|   \\  /    A nd           | Website:  www.openfoam.com                      |
|    \\/     M anipulation  |                                                 |
\*---------------------------------------------------------------------------*/
FoamFile
{
    version     2.0;
    format      ascii;
    class       volScalarField;
    object      p_rgh;
}
// * * * * * * * * * * * * * * * * * * * * * * * * * * * * * * * * * * * * * //

dimensions      [1 -1 -2 0 0 0 0];

#include "include/initialConditions"

internalField   $staticPressure;

boundaryField
{
    #includeEtc "caseDicts/setConstraintTypes"

    "wall.*"
    {
        type            fixedFluxPressure;
        rho             rhok;
        value           $internalField;
    }

    inlet
    {
        type            fixedFluxPressure;
        gradient        uniform 0;
        value           $internalField;
    }

    outlet
    {
        type            fixedValue;
        value           $internalField;
    }

    #include "include/constantPatches"
}

// ************************************************************************* //
