/*--------------------------------*- C++ -*----------------------------------*\
| =========                 |                                                 |
| \\      /  F ield         | OpenFOAM: The Open Source CFD Toolbox           |
|  \\    /   O peration     | Version:  v2206                                 |
|   \\  /    A nd           | Website:  www.openfoam.com                      |
|    \\/     M anipulation  |                                                 |
\*---------------------------------------------------------------------------*/
FoamFile
{
    version     2.0;
    format      ascii;
    class       volScalarField;
    object      alphat;
}
// * * * * * * * * * * * * * * * * * * * * * * * * * * * * * * * * * * * * * //

dimensions      [1 -1 -1 0 0 0 0];

#include "include/initialConditions"

internalField   $flowAlphaT;

boundaryField
{
    #includeEtc "caseDicts/setConstraintTypes"

    "wall.*"
    {
        type            compressible::alphatWallFunction;
        value           $internalField;
    }
    
    // "(ymax|ymin)"
    // {
    //     type            compressible::alphatWallFunction;
    //     value           $internalField;
    // }
    
    // "(xmax|xmin)"
    // {
    //     type            compressible::alphatWallFunction;
    //     value           $internalField;
    // }

    #include "include/constantPatches"
}


// ************************************************************************* //
