/*--------------------------------*- C++ -*----------------------------------*\
| =========                 |                                                 |
| \\      /  F ield         | OpenFOAM: The Open Source CFD Toolbox           |
|  \\    /   O peration     | Version:  v2206                                 |
|   \\  /    A nd           | Website:  www.openfoam.com                      |
|    \\/     M anipulation  |                                                 |
\*---------------------------------------------------------------------------*/
FoamFile
{
    version     2.0;
    format      ascii;
    class       dictionary;
    object      fvSolution;
}
// * * * * * * * * * * * * * * * * * * * * * * * * * * * * * * * * * * * * * //

solvers
{
    p_rgh
    {
        solver          PCG;
        preconditioner  DIC;
        tolerance       1e-08;
        relTol          0.01;
    }

    Phi
    {
        $p_rgh;
    }

    "(U|T|theta|thetaBar|k|epsilon)"
    {
        solver          PBiCGStab;
        preconditioner  DILU;
        tolerance       1e-07;
        relTol          0.1;
    }

    cellDisplacement
    {
        $p_rgh;
        relTol          0;
    }
}

potentialFlow
{
    nNonOrthogonalCorrectors 3;
    PhiRefCell  0;
    PhiRefValue 0;
}

SIMPLE
{
    nNonOrthogonalCorrectors 2;
    pRefCell        0;
    pRefValue       0;

    residualControl
    {
        p_rgh           1e-6;
        Ux              1e-5;
        Uy              5e-4;
        T               1e-5;

        // possibly check turbulence fields
        "(k|epsilon|theta|thetaBar|omega)" 1e-5;
    }
}

relaxationFactors
{
    fields
    {
        p_rgh           0.7;
    }
    equations
    {
        U               0.2;
        "(T|theta|thetaBar)"     0.5;
        "(k|epsilon)"   0.7;
    }
}


// ************************************************************************* //
